# Name file for MODFLOW-2005, generated by Flopy version 3.3.4.
#xll:0.0; yll:0.0; rotation:0.0; units:meters; lenuni:2; start_datetime:1-1-1970
LIST               2  Test00.list
DIS               11  Test00.dis
BAS6              13  Test00.bas
LPF               15  Test00.lpf
PCG               27  Test00.pcg
GHB               23  Test00.ghb
WEL               20  Test00.wel
OC                14  Test00.oc
DATA(BINARY)      53  Test00.cbc REPLACE
DATA(BINARY)      51  Test00.hds REPLACE
DATA(BINARY)      52  Test00.ddn REPLACE
