# DIS package for  MODFLOW-2005, generated by Flopy.
         5         5         5         3         4         2
  0  0  0  0  0
CONSTANT    2.000000E+02                           #delr                          
CONSTANT    2.000000E+02                           #delc                          
CONSTANT    1.000000E+01                           #model_top                     
CONSTANT   -2.000000E+00                           #botm layer 1                  
CONSTANT   -1.400000E+01                           #botm layer 2                  
CONSTANT   -2.600000E+01                           #botm layer 3                  
CONSTANT   -3.800000E+01                           #botm layer 4                  
CONSTANT   -5.000000E+01                           #botm layer 5                  
      1.000000             1  1.000000  SS 
    100.000000           100  1.000000  TR 
    100.000000           100  1.000000  TR 
