# Name file for MODFLOW-2005, generated by Flopy version 3.3.4.
#xll:0.0; yll:0.0; rotation:0.0; units:meters; lenuni:2; start_datetime:1-1-1970
LIST               2  Test01.list
DIS               11  Test01.dis
BAS6              13  Test01.bas
LPF               15  Test01.lpf
PCG               27  Test01.pcg
GHB               23  Test01.ghb
WEL               20  Test01.wel
OC                14  Test01.oc
DATA(BINARY)      53  Test01.cbc REPLACE
DATA(BINARY)      51  Test01.hds REPLACE
DATA(BINARY)      52  Test01.ddn REPLACE
